   73 
Created with kallisto
C     -4.8579   -0.2541    2.8380 
C     -3.8074   -0.6686    2.0030 
C     -5.6903   -1.2392    3.3856 
N     -2.8308    0.0583    1.3763 
C     -3.6298   -2.0135    1.7390 
C     -5.4923   -2.5931    3.0900 
H     -6.4941   -0.9444    4.0602 
C     -2.0561   -0.8580    0.8080 
C     -4.4517   -3.0160    2.2465 
O     -2.5185   -2.1426    0.9555 
H     -6.1550   -3.3337    3.5362 
C     -0.7520   -0.6113    0.1756 
H     -4.2878   -4.0611    2.0190 
C      0.1755   -1.5727   -0.2603 
C     -0.3447    0.7443    0.1258 
N     -0.0790   -2.9304   -0.3006 
N      1.4046   -1.2067   -0.6777 
C      0.9299    1.1065   -0.2988 
H     -1.0370    1.5189    0.4550 
C      0.9956   -3.9448   -0.2162 
H     -0.8556   -3.1549   -0.9135 
C      1.7660    0.0847   -0.6811 
C      1.4106    2.4641   -0.3061 
C      1.4775   -3.9809    1.2455 
C      0.3659   -5.2950   -0.6105 
C      2.2135   -3.7576   -1.1450 
H      2.7930    0.2563   -0.9903 
C      2.3941    3.0757   -1.1131 
C      1.0484    3.4434    0.5914 
H      0.6389   -3.8980    1.9464 
H      2.1516   -3.1408    1.4559 
H      2.0232   -4.9022    1.4715 
H     -0.6290   -5.4288   -0.1754 
H      0.9955   -6.1366   -0.3012 
H      0.2530   -5.3579   -1.7013 
H      2.8826   -2.9518   -0.8258 
H      1.9134   -3.5649   -2.1804 
H      2.8436   -4.6562   -1.1382 
N      2.6361    4.3342   -0.7537 
H      2.9535    2.6509   -1.9382 
N      1.8316    4.5280    0.3059 
H      0.3510    3.4486    1.4182 
C      1.8813    5.7730    1.0633 
C      1.0124    6.8617    0.4276 
C      3.3119    6.2656    1.3267 
H      1.4428    5.5197    2.0388 
C      1.6921    7.5182   -0.7680 
H      0.8205    7.6325    1.1851 
H      0.0367    6.4594    0.1292 
C      3.9346    6.9937    0.1362 
H      3.2744    6.9678    2.1698 
H      3.9608    5.4367    1.6364 
N      3.0255    7.9928   -0.4196 
H      1.0691    8.3418   -1.1304 
H      1.7974    6.8114   -1.6001 
H      4.8711    7.4537    0.4663 
H      4.2005    6.3068   -0.6735 
C      3.4682    9.2042   -0.9364 
O      4.7876    9.4141   -0.6926 
O      2.7445   10.0017   -1.5189 
C      5.4363   10.6718   -1.0172 
C      4.7763   11.8444   -0.2802 
C      6.8795   10.5002   -0.5114 
C      5.4760   10.9179   -2.5288 
H      4.5007   11.5688    0.7431 
H      3.8577   12.1649   -0.7836 
H      5.4361   12.7186   -0.2429 
H      6.9020   10.0055    0.4666 
H      7.4054   11.4573   -0.4318 
H      7.4562    9.8614   -1.1914 
H      4.4759   11.0709   -2.9448 
H      5.9044   10.0570   -3.0536 
H      6.0736   11.8048   -2.7667 
