23

C          1.02585       -1.41819        0.10735
C          2.19641       -0.65325        0.04371
C          2.14922        0.73805       -0.07490
C          0.92303        1.41303       -0.14372
C         -0.26080        0.66414       -0.08355
N         -1.57019        1.07797       -0.13272
C         -2.29213       -0.01844       -0.01109
C         -3.77721       -0.06325        0.01110
C         -4.61835       -1.18453        0.21920
C         -5.92028       -0.73409        0.16230
N         -5.89155        0.61525       -0.08364
C         -4.59004        1.03318       -0.17187
N         -1.48774       -1.12334        0.09802
C         -0.18033       -0.71825        0.04754
H          1.06181       -2.49771        0.20128
H          3.16184       -1.15317        0.08951
H          3.07465        1.30761       -0.11522
H          0.87864        2.49164       -0.23712
H         -4.32389       -2.20831        0.40453
H         -6.86176       -1.25464        0.27676
H         -6.70335        1.21181       -0.18081
H         -4.34671        2.07070       -0.36139
H         -1.81331       -2.07200        0.19487
